[General]
network = test
sim-time-limit = 900s #Simulation Period
*.host*.ipv4.arp.typename = "GlobalArp"

# Configurations for all the three Smoke Sensors
*.hostA*.numApps = 1
*.hostA*.app[0].typename = "UdpBasicApp"
*.hostA*.app[0].destAddresses = "hostC" #hostC is the controller / destination
*.hostA*.app[0].destPort = 5000
*.hostA*.app[0].messageLength = 64B #length of message 64 Bytes
*.hostA*.app[0].sendInterval = 5s #1 packet is sent after 5s
*.hostA*.app[0].packetName = "UDPData"

# Configurations for Camera Sensor
*.hostB.numApps = 1
*.hostB.app[0].typename = "UdpBasicApp"
*.hostB.app[0].destAddresses = "hostC" #hostC is the controller / destination
*.hostB.app[0].destPort = 5000
*.hostB.app[0].messageLength = 1024B #Length of message 1 Megabytes
*.hostB.app[0].sendInterval = 20s #1 packet is sent after 20s
*.hostB.app[0].packetName = "UDPData"

# Configurations for Humidity Sensor
*.hostD.numApps = 1
*.hostD.app[0].typename = "UdpBasicApp"
*.hostD.app[0].destAddresses = "hostC" #hostC is the controller / destination
*.hostD.app[0].destPort = 5000
*.hostD.app[0].messageLength = 64B #Length of message 64bytes
*.hostD.app[0].sendInterval = 15s #1 packet is sent after 15s
*.hostD.app[0].packetName = "UDPData"

# Configurations for Temperature Sensor
*.hostE.numApps = 1
*.hostE.app[0].typename = "UdpBasicApp"
*.hostE.app[0].destAddresses = "hostC" #hostC is the controller / destination
*.hostE.app[0].destPort = 5000
*.hostE.app[0].messageLength = 64B #Length of message 64bytes
*.hostE.app[0].sendInterval = 15s #1 packet is sent after 15s
*.hostE.app[0].packetName = "UDPData"

# Configurations for Co2 Sensor
*.hostF.numApps = 1
*.hostF.app[0].typename = "UdpBasicApp"
*.hostF.app[0].destAddresses = "hostC"
*.hostF.app[0].destPort = 5000
*.hostF.app[0].messageLength = 64B #Length of message 64bytes
*.hostF.app[0].sendInterval = 15s #1 packet is sent after 15s
*.hostF.app[0].packetName = "UDPData"

# Configuration for host C / Destination / Controller
*.hostC.numApps = 1
*.hostC.app[0].typename = "UdpSink"
*.hostC.app[0].localPort = 5000

#Common configurations for all sensors and hosts
*.host*.wlan[0].mac.fullDuplex = false
*.host*.wlan[0].radio.receiver.ignoreInterference = true
*.host*.wlan[0].mac.headerLength = 23B
*.host*.**.bitrate = 11Mbps

#setting Visualizations
*.visualizer.sceneVisualizer.descriptionFigure = "title"
*.visualizer.mediumVisualizer.displaySignals = true
*.visualizer.physicalLinkVisualizer.packetFilter = "UDPData*"

#Setting up the communication ranges of all the Access_points
*.hostR3.wlan[0].radio.transmitter.communicationRange = 125m
*.hostR1.wlan[0].radio.transmitter.communicationRange = 250m
*.hostR2.wlan[0].radio.transmitter.communicationRange = 250m
*.hostR4.wlan[0].radio.transmitter.communicationRange = 250m
*.hostR5.wlan[0].radio.transmitter.communicationRange = 100m

*.host*.forwarding = true
*.configurator.config = xml("<config><interface hosts='**' address='10.0.0.x' netmask='255.255.255.0'/><autoroute metric='errorRate'/></config>")
*.configurator.optimizeRoutes = false
*.host*.ipv4.routingTable.netmaskRoutes = ""

#Setting more Visualzations
*.visualizer.physicalLinkVisualizer.displayLinks = true
*.visualizer.dataLinkVisualizer.displayLinks = true
*.visualizer.networkRouteVisualizer.displayRoutes = true
*.visualizer.*LinkVisualizer.lineShift = 0
*.visualizer.networkRouteVisualizer.lineShift = 0
*.visualizer.networkRouteVisualizer.packetFilter = "UDPData*"
*.host*.wlan[0].mac.useAck = true

#Communication Ranges of sensors
*.hostA*.wlan[0].radio.transmitter.communicationRange = 100m
*.hostB.wlan[0].radio.transmitter.communicationRange = 100m
*.hostD.wlan[0].radio.transmitter.communicationRange = 100m
*.hostE.wlan[0].radio.transmitter.communicationRange = 100m
*.hostF.wlan[0].radio.transmitter.communicationRange = 100m
*.hostC.wlan[0].radio.transmitter.communicationRange = 275m

*.hostA*.wlan[0].radio.displayCommunicationRange = true
*.hostB.wlan[0].radio.displayCommunicationRange = true
*.hostD.wlan[0].radio.displayCommunicationRange = true
*.hostE.wlan[0].radio.displayCommunicationRange = true
*.hostF.wlan[0].radio.displayCommunicationRange = true

*.configurator.addStaticRoutes = false
*.host*.typename = "AodvRouter"
*.visualizer.dataLinkVisualizer.packetFilter = "AODV*"

#Mac as IEEE802.11/////////////////////////////////////////////////////
*.host*.wlan[*].mgmt.typename = "Ieee80211MgmtAdhoc"
*.host*.wlan[*].agent.typename = ""
*.host*.wlan[*].radio.typename = "Ieee80211UnitDiskRadio"
*.host*.wlan[*].bitrate = 11Mbps #Bit rate = 11 Mbps






